Dados_Sistema_IEEE_33.m
%% Dados de entrada do sistema IEEE 33 barras

%% Dados gerais do sistema

% base de tensão V = 12.66kV; S = 100MVA

Sbase = 100; % MVA
Vbase = 12.66; % kV

K = (Vbase^2)/Sbase;

nbus = 33;


%% Dados de barras

% Tipos de barras:  1 - Barra Slack; 
%                   2 - Barra PV;
%                   3 - Barra PQ;

%          |Bus | Type | Vsp | theta | PGi | QGi | PLi    |   QLi   |  Qmin | Qmax | Shunt 
busdata = [   1     1       1.0     0      0    0    0          0         0       0     0;     
              2     3       1.0     0      0    0   0.1000     0.2000     0       0     0;
              3     3       1.0     0      0    0   0.2000     0.4000     0       0     0;   
              4     3       1.0     0      0    0   0.1200     0.0800     0       0     0;
              5     3       1.0     0      0    0   0.1000     0.0500     0       0     0;
              6     3       1.0     0      0    0   0.1000     0.0800     0       0     0;
              7     3       1.0     0      0    0   0.2000     0.1000     0       0     0;
              8     3       1.0     0      0    0   0.2000     0.1000     0       0     0;
              9     3       1.0     0      0    0   0.0800     0.0400     0       0     0;
              10    3       1.0     0      0    0   0.0700     0.0600     0       0     0;
              11    3       1.0     0      0    0   0.0950     0.1000     0       0     0;
              12    3       1.0     0      0    0   0.0600     0.3500     0       0     0;
              13    3       1.0     0      0    0   0.0600     0.3500     0       0     0;
              14    3       1.0     0      0    0   0.1200     0.1000     0       0     0;
              15    3       1.0     0      0    0   0.1000     0.0700     0       0     0;
              16    3       1.0     0      0    0   0.0600     0.0200     0       0     0;
              17    3       1.0     0      0    0   0.0600     0.0200     0       0     0;
              18    2       1.0     0      2    0   0.1000     0.0400     0       0     0;
              19    3       1.0     0      0    0   0.0900     0.0400     0       0     0;
              20    3       1.0     0      0    0   0.1000     0.0700     0       0     0;
              21    3       1.0     0      0    0   0.0900     0.0400     0       0     0;
              22    3       1.0     0      0    0   0.0900     0.0400     0       0     0;
              23    3       1.0     0      0    0   0.0900     0.0500     0       0     0;
              24    3       1.0     0      0    0   0.2200     0.2000     0       0     0;
              25    3       1.0     0      0    0   0.4200     0.2000     0       0     0;
              26    3       1.0     0      0    0   0.3000     0.2500     0       0     0;
              27    3       1.0     0      0    0   0.0600     0.1000     0       0     0;
              28    3       1.0     0      0    0   0.0600     0.1000     0       0     0;
              29    3       1.0     0      0    0   0.1200     0.0700     0       0     0;
              30    3       1.0     0      0    0   0.2000     0.6000     0       0     0;
              31    3       1.0     0      0    0   0.1500     0.0700     0       0     0;
              32    3       1.0     0      0    0   0.2100     0.1000     0       0     0;
              33    3       1.0     0      0    0   0.0600     0.0400     0       0     0;
              ];
          
%% Dados de linhas

%         |  From |  To   |   R        |   X     |    B/2  |  X'mer  |   | Defasagem (°) |
%         |  Bus  | Bus   |  pu        |  pu     |    pu   | TAP (a) |   | Defasagem (°) |
linedata =  [1      2       0.0922/K	0.047/K     0.0        1             0
             2      3       0.496/K	    0.2511/K    0.0        1             0             
             3      4       0.366/K	    0.1864/K    0.0        1             0
             4      5       0.3811/K	0.1941/K    0.0        1             0
             5      6       0.819/K	    0.707/K     0.0        1             0 
             6      7       0.1872/K	0.6188/K    0.0        1             0
             7      8       0.7114/K	0.2351/K    0.0        1             0
             8      9       1.03/K	    0.74/K      0.0        1             0
             9      10      1.044/K	    0.74/K      0.0        1             0
             10     11      0.1966/K	0.065/K     0.0        1             0
             11     12      0.3744/K	0.1238/K    0.0        1             0
             12     13      1.468/K	    1.155/K     0.0        1             0
             13     14      0.5416/K	0.7129/K    0.0        1             0
             14     15      0.591/K	    0.526/K     0.0        1             0
             15     16      0.7463/K	0.545/K     0.0        1             0
             16     17      1.289/K	    1.721/K     0.0        1             0
             17     18      0.732/K	    0.574/K     0.0        1             0
             2      19      0.164/K	    0.1565/K    0.0        1             0
             19     20      1.5042/K	1.3554/K    0.0        1             0
             20     21      0.4095/K	0.4784/K     0.0       1             0
             21     22      0.7089/K	0.9373/K    0.0        1             0
             3      23      0.4512/K	0.3083/K     0.0       1             0
             23     24      0.898/K	    0.7091/K     0.0       1             0
             24     25      0.896/K	    0.7011/K     0.0       1             0
             6      26      0.203/K	    0.1034/K     0.0       1             0
             26     27      0.2842/K	0.1447/K     0.0       1             0
             27     28      1.059/K	    0.9337/K     0.0       1             0
             28     29      0.8042/K	0.7006/K     0.0       1             0
             29     30      0.5075/K	0.2585/K     0.0       1             0
             30     31      0.9744/K	0.963/K      0.0       1             0
             31     32      0.3105/K	0.3619/K     0.0       1             0
             32     33      0.341/K	    0.5302/K     0.0       1             0
             ];

